Circuit: * C:\Users\Aluno\Downloads\Fonte\Fonte.asc

Instance "m:m2:1": Width narrower than recommended for a level 3 MOSFET.
Direct Newton iteration failed to find .op point.  (Use ".option noopiter" to skip.)
Starting Gmin stepping
Gmin = 10
Gmin = 1.07374
Gmin = 0.115292
Gmin = 0.0123794
Gmin = 0.00132923
vernier = 0.5
Gmin = 0.000339899
vernier = 0.666667
vernier = 0.888888
Gmin = 6.56245e-005
vernier = 1
Gmin = 7.53781e-006
Gmin = 8.09366e-007
Gmin = 8.6905e-008
Gmin = 9.33136e-009
Gmin = 1.00195e-009
Gmin = 1.07583e-010
Gmin = 1.15517e-011
Gmin = 1.24035e-012
Gmin = 1.33182e-013
Gmin = 0
Gmin stepping succeeded in finding the operating point.


Date: Tue Dec 19 18:46:19 2023
Total elapsed time: 0.950 seconds.

tnom = 27
temp = 27
method = modified trap
totiter = 13405
traniter = 12680
tranpoints = 4311
accept = 3123
rejected = 1188
matrix size = 89
fillins = 152
solver = Normal
Thread vector: 15.9/13.2[2] 7.8/5.3[2] 2.1/2.1[1] 1.0/6.6[1]  2592/500
Matrix Compiler1: 14.24 KB object code size  7.9/4.1/[1.9]
Matrix Compiler2: off  [2.2]/2.7/14.5

