Circuit: * D:\Downloads\Draft2.asc

Warning: Multiple definitions of model "2scr375p" Type: BJT
Warning: Multiple definitions of model "bc857b" Type: BJT
Warning: Multiple definitions of model "bc847c" Type: BJT
Warning: Multiple definitions of model "bc847b" Type: BJT
WARNING: Less than two connections to node no.  This node is used by r7.
Direct Newton iteration failed to find .op point.  (Use ".option noopiter" to skip.)
Starting Gmin stepping
Gmin = 10
Gmin = 1.07374
Gmin = 0.115292
Gmin = 0.0123794
Gmin = 0.00132923
Gmin = 0.000142725
Gmin = 1.5325e-05
Gmin = 1.6455e-06
Gmin = 1.76685e-07
Gmin = 1.89714e-08
Gmin = 2.03704e-09
Gmin = 2.18725e-10
Gmin = 2.34854e-11
Gmin = 2.52173e-12
Gmin = 2.70769e-13
Gmin = 0
Gmin stepping succeeded in finding the operating point.


Date: Mon Nov 20 21:37:57 2023
Total elapsed time: 0.929 seconds.

tnom = 27
temp = 27
method = modified trap
totiter = 990
traniter = 552
tranpoints = 277
accept = 277
rejected = 0
matrix size = 19
fillins = 0
solver = Normal
Avg thread counts: 1.8/2.5/2.5/1.8
Matrix Compiler1: 1.01 KB object code size  0.3/0.3/[0.1]
Matrix Compiler2: off  [0.2]/0.2/0.2

