Circuit: * C:\Users\Aluno\Downloads\Fonte\Fonte.asc

Instance "m:m2:1": Width narrower than recommended for a level 3 MOSFET.
Direct Newton iteration failed to find .op point.  (Use ".option noopiter" to skip.)
Starting Gmin stepping
Gmin = 10
Gmin = 1.07374
Gmin = 0.115292
Gmin = 0.0123794
Gmin = 0.00132923
Gmin = 0.000142725
Gmin = 1.5325e-005
Gmin = 1.6455e-006
Gmin = 1.76685e-007
Gmin = 1.89714e-008
Gmin = 2.03704e-009
Gmin = 2.18725e-010
Gmin = 2.34854e-011
Gmin = 2.52173e-012
Gmin = 2.70769e-013
Gmin = 0
Gmin stepping succeeded in finding the operating point.


Date: Wed Dec 13 22:06:00 2023
Total elapsed time: 0.292 seconds.

tnom = 27
temp = 27
method = modified trap
totiter = 6950
traniter = 6464
tranpoints = 2709
accept = 2289
rejected = 420
matrix size = 95
fillins = 131
solver = Normal
Thread vector: 7.3/4.6[2] 2.2/1.6[2] 1.5/1.0[2] 0.3/0.8[1]  2592/500
Matrix Compiler1: 13.63 KB object code size  1.8/1.1/[0.5]
Matrix Compiler2: 10.18 KB object code size  0.8/1.4/[0.5]

