Circuit: * C:\Users\rafae\Downloads\Fonte\Fonte.asc

Warning: Multiple definitions of model "2scr375p" Type: BJT
Warning: Multiple definitions of model "bc857b" Type: BJT
Warning: Multiple definitions of model "bc847c" Type: BJT
Warning: Multiple definitions of model "bc847b" Type: BJT
WARNING: Less than two connections to node n025.  This node is used by r21.
Instance "m:m2:1": Width narrower than recommended for a level 3 MOSFET.
Direct Newton iteration failed to find .op point.  (Use ".option noopiter" to skip.)
Starting Gmin stepping
Gmin = 10
Gmin = 1.07374
Gmin = 0.115292
Gmin = 0.0123794
Gmin = 0.00132923
Gmin = 0.000142725
Gmin = 1.5325e-05
Gmin = 1.6455e-06
Gmin = 1.76685e-07
Gmin = 1.89714e-08
vernier = 0.5
vernier = 0.25
vernier = 0.125
Gmin = 1.04293e-08
vernier = 0.0625
vernier = 0.03125
vernier = 0.015625
vernier = 0.0078125
vernier = 0.00390625
Gmin = 1.00837e-08
vernier = 0.00520833
vernier = 0.00694444
Gmin = 9.95121e-09
vernier = 0.00925925
Gmin = 9.74626e-09
vernier = 0.0123457
vernier = 0.0164609
Gmin = 9.41182e-09
vernier = 0.0219478
vernier = 0.0292638
Gmin = 8.90259e-09
vernier = 0.0390184
Gmin = 8.15753e-09
vernier = 0.0520245
vernier = 0.0693659
Gmin = 7.04724e-09
vernier = 0.0924879
vernier = 0.123317
Gmin = 5.5866e-09
vernier = 0.164423
Gmin = 3.88536e-09
vernier = 0.21923
vernier = 0.292307
Gmin = 2.1275e-09
vernier = 0.389743
vernier = 0.519657
Gmin = 8.28403e-10
vernier = 0.692876
Gmin = 1.94888e-10
vernier = 0.923834
vernier = 1
Gmin = 2.29448e-11
Gmin = 2.46368e-12
Gmin = 2.64536e-13
Gmin = 0
Gmin stepping succeeded in finding the operating point.


Date: Wed Dec  6 17:29:25 2023
Total elapsed time: 5.508 seconds.

tnom = 27
temp = 27
method = modified trap
totiter = 261567
traniter = 259726
tranpoints = 95614
accept = 63989
rejected = 31625
matrix size = 92
fillins = 156
solver = Normal
Avg thread counts: 1.0/1.0/1.0/1.0
Matrix Compiler1: 13.40 KB object code size  2.7/1.3/[0.7]
Matrix Compiler2: 10.25 KB object code size  0.9/1.3/[0.5]

