Circuit: * C:\Users\Aluno\Downloads\Fonte\Fonte.asc

Instance "m:m2:1": Width narrower than recommended for a level 3 MOSFET.
Early termination of direct N-R iteration.
Direct Newton iteration failed to find .op point.  (Use ".option noopiter" to skip.)
Starting Gmin stepping
Gmin = 10
Gmin = 1.07374
Gmin = 0.115292
Gmin = 0.0123794
Gmin = 0.00132923
Gmin = 0.000142725
Gmin = 1.5325e-005
Gmin = 1.6455e-006
Gmin = 1.76685e-007
Gmin = 1.89714e-008
Gmin = 2.03704e-009
Gmin = 2.18725e-010
Gmin = 2.34854e-011
Gmin = 2.52173e-012
Gmin = 2.70769e-013
Gmin = 0
Gmin stepping succeeded in finding the operating point.

Heightened Def Con from 0.0299537 to 0.0299537
Heightened Def Con from 0.0299544 to 0.0299544
Heightened Def Con from 0.030046 to 0.030046
Heightened Def Con from 0.0331964 to 0.0331964
Heightened Def Con from 0.0340432 to 0.0340432
Heightened Def Con from 0.0342945 to 0.0342945
Heightened Def Con from 0.0343425 to 0.0343425
Heightened Def Con from 0.0363265 to 0.0363265
Heightened Def Con from 0.0375577 to 0.0375577
Heightened Def Con from 0.0382952 to 0.0382952
Heightened Def Con from 0.0384459 to 0.0384459
Heightened Def Con from 0.0387674 to 0.0387674
